/*--------------------------------*- C++ -*----------------------------------*\
| =========                 |                                                 |
| \\      /  F ield         | OpenFOAM: The Open Source CFD Toolbox           |
|  \\    /   O peration     | Version:  4.1                                   |
|   \\  /    A nd           | Web:      www.OpenFOAM.org                      |
|    \\/     M anipulation  |                                                 |
\*---------------------------------------------------------------------------*/
FoamFile
{
    version     2.0;
    format      ascii;
    class       dictionary;
    location    "system";
    object      controlDict;
}
// * * * * * * * * * * * * * * * * * * * * * * * * * * * * * * * * * * * * * //

application     icoFoam;

startFrom       startTime;

startTime       0;

stopAt          endTime;

endTime         10;

deltaT          0.0025;

writeControl    adjustableRunTime;

writeInterval   0.5;

purgeWrite      0;

writeFormat     ascii;

writePrecision  6;

writeCompression off;

timeFormat      general;

timePrecision   6;

runTimeModifiable true;

// ************************************************************************* //
functions
{
    probes
    {

        libs            ("libsampling.so");
        type            probes;
        name            probes;

        // Write at same frequency as fields
        writeControl    writeTime;
        writeInterval   1;
        fields          (p U);
        probeLocations
        (
            (0.05  0.05 0.005)   // P0 = centro da cavidade
            (0.01  0.01 0.005)   // P1 = canto inferior esquerdo
            (0.09  0.01 0.005)   // P2 = canto inferior direito
        );
    }
}
// ************************************************************************* //
